REMARK  11 active torsions:
REMARK  status: ('A' for Active; 'I' for Inactive)
REMARK    1  A    between atoms: C_1  and  C_19 
REMARK    2  A    between atoms: C_3  and  C_20 
REMARK       I    between atoms: C_12  and  N_5 
REMARK    3  A    between atoms: C_9  and  C_15 
REMARK    4  A    between atoms: C_16  and  O_10 
REMARK    5  A    between atoms: C_18  and  O_11 
REMARK    6  A    between atoms: C_12  and  C_13 
REMARK       I    between atoms: C_19  and  N_27 
REMARK    7  A    between atoms: C_28  and  N_27 
REMARK    8  A    between atoms: C_28  and  C_29 
REMARK    9  A    between atoms: C_29  and  O_30 
REMARK   10  A    between atoms: C_31  and  O_30 
REMARK   11  A    between atoms: C_31  and  N_32 
ROOT
HETATM    1  C           1      48.739  77.318   7.751  0.00  0.00     0.180 C 
HETATM    2  C           1      50.009  78.022   7.227  0.00  0.00     0.046 C 
HETATM    3  C           1      50.699  76.965   6.338  0.00  0.00     0.039 C 
HETATM    4  C           1      50.369  75.697   7.147  0.00  0.00     0.136 C 
HETATM    5  N           1      48.965  75.902   7.464  0.00  0.00    -0.334 N 
HETATM    6  O           1      48.588  73.909   8.327  0.00  0.00    -0.267 OA
HETATM    7  C           1      48.105  74.884   7.797  0.00  0.00     0.257 C 
ENDROOT
BRANCH   1   8
HETATM    8  C           1      48.579  77.584   9.250  0.00  0.00     0.240 C 
HETATM    9  O           1      48.286  78.676   9.672  0.00  0.00    -0.271 OA
HETATM   10  N           1      48.825  76.502  10.053  0.00  0.00    -0.357 N 
HETATM   11  H           1      48.969  75.587   9.619  0.00  0.00     0.162 HD
BRANCH  10  12
HETATM   12  C           1      48.795  76.571  11.517  0.00  0.00     0.149 C 
BRANCH  12  13
HETATM   13  C           1      47.458  76.051  12.040  0.00  0.00     0.189 C 
BRANCH  13  14
HETATM   14  O           1      47.476  76.093  13.446  0.00  0.00    -0.361 OA
BRANCH  14  15
HETATM   15  C           1      46.273  75.620  14.015  0.00  0.00     0.434 C 
BRANCH  15  16
HETATM   16  N           1      46.358  75.705  15.481  0.00  0.00     0.101 N 
HETATM   17  H           1      45.601  75.156  15.923  0.00  0.00     0.315 HD
HETATM   18  H           1      47.239  75.274  15.808  0.00  0.00     0.315 HD
ENDBRANCH  15  16
ENDBRANCH  14  15
ENDBRANCH  13  14
ENDBRANCH  12  13
ENDBRANCH  10  12
ENDBRANCH   1   8
BRANCH   7  19
HETATM   19  C           1      46.755  75.084   7.748  0.00  0.00     0.066 A 
HETATM   20  C           1      45.971  74.516   8.685  0.00  0.00     0.030 A 
HETATM   21  C           1      44.634  74.663   8.708  0.00  0.00    -0.020 A 
HETATM   22  C           1      44.051  75.403   7.746  0.00  0.00     0.075 A 
HETATM   23  C           1      44.836  75.935   6.795  0.00  0.00     0.074 A 
HETATM   24  C           1      46.171  75.800   6.764  0.00  0.00     0.084 A 
BRANCH  21  25
HETATM   25  C           1      43.794  73.988   9.786  0.00  0.00     0.013 C 
HETATM   26  C           1      44.263  74.329  11.210  0.00  0.00     0.015 C 
HETATM   27  C           1      43.765  72.467   9.563  0.00  0.00     0.015 C 
ENDBRANCH  21  25
BRANCH  22  28
HETATM   28  O           1      42.704  75.590   7.682  0.00  0.00    -0.360 OA
HETATM   29  H           1      42.490  76.107   6.888  0.00  0.00     0.217 HD
ENDBRANCH  22  28
BRANCH  24  30
HETATM   30  O           1      46.849  76.320   5.702  0.00  0.00    -0.360 OA
HETATM   31  H           1      47.771  76.019   5.705  0.00  0.00     0.217 HD
ENDBRANCH  24  30
ENDBRANCH   7  19
BRANCH   3  32
HETATM   32  C           1      50.159  77.008   4.913  0.00  0.00    -0.052 A 
HETATM   33  C           1      49.529  75.979   4.316  0.00  0.00     0.007 A 
HETATM   34  C           1      49.058  76.074   3.063  0.00  0.00     0.001 A 
HETATM   35  C           1      49.227  77.206   2.364  0.00  0.00     0.000 A 
HETATM   36  C           1      49.874  78.235   2.929  0.00  0.00     0.001 A 
HETATM   37  C           1      50.334  78.129   4.186  0.00  0.00     0.007 A 
ENDBRANCH   3  32
TORSDOF 11
